Circuit: * E:\Аналоговая электроника\Катя\LTSPICE\Светомузыка4.asc

Direct Newton iteration for .op point succeeded.

Date: Sun May 16 12:34:04 2021
Total elapsed time: 0.676 seconds.

tnom = 27
temp = 27
method = trap
totiter = 18
traniter = 0
tranpoints = 0
accept = 0
rejected = 0
matrix size = 38
fillins = 43
solver = Normal
Matrix Compiler1:     185 opcodes
Matrix Compiler2: 3.35 KB object code size

